/*--------------------------------*- C++ -*----------------------------------*\
| =========                 |                                                 |
| \\      /  F ield         | OpenFOAM: The Open Source CFD Toolbox           |
|  \\    /   O peration     | Version:  v2212                                 |
|   \\  /    A nd           | Website:  www.openfoam.com                      |
|    \\/     M anipulation  |                                                 |
\*---------------------------------------------------------------------------*/
FoamFile
{
    version     2.0;
    format      ascii;
    class       dictionary;
    object      fvSolution;
}
// * * * * * * * * * * * * * * * * * * * * * * * * * * * * * * * * * * * * * //

solvers
{
    p
    {
        solver          PBiCGStab;
        preconditioner  DILU;
        smoother        symGaussSeidel;
        tolerance       1e-8;
        relTol          0.01;
    }

    pFinal
    {
        $p;
        relTol          0;
    }

    "(rho|U|k|omega|e|h)"
    {
        solver          PBiCGStab;
        preconditioner  DILU;
        tolerance       1e-8;
        relTol          0.01;
    }

    "(rho|U|k|omega|e|h)Final"
    {
        $U;
        relTol          0;
    }
}

PIMPLE
{
    momentumPredictor yes;
    nCorrectors              2;
    nNonOrthogonalCorrectors 1;
    nOuterCorrectors         1;
    transonic        yes;
}

relaxationFactors
{
    equations
    {
        ".*"     1;
    }
}


// ************************************************************************* //
